---- qbsp / ericw-tools 2.0.0-alpha8 ----

--- Options Summary ---
    "q2bsp" was set to "1" (from command line)
    "chop" was set to "1" (from game target)
    "maxedges" was set to "0" (from game target)

Input file: /home/null/_01_projects/FPS Template/sui-template/maps/test_generic_final-compile.map
Output file: /home/null/_01_projects/FPS Template/sui-template/maps/test_generic_final.bsp

using gamedir: '/home/null/_01_projects/FPS Template/sui-template'
WARNING: failed to find basedir '/home/null/_01_projects/FPS Template/baseq2'
LoadPCXPalette: Failed to load 'pics/colormap.pcx'.
INFO: using built-in palette.
WARNING: Couldn't locate texture for skip
       39 entities
       14 unique textures
    1,109 texinfos
      974 unique planes

INFO: world extents calculated to 4184 units
      484 brushes
        3 utility brushes removed
       11 brushes offset by origins
    2,909 sides
       22 side bevels

Processing map...
    467 SOLID brushes
    467 brushes total
    2,799 visible sides
INFO: calculating BSP for 467 brushes with 2799 sides
chopped 467 brushes into 467
    17 brushes created from the chompening
      467 brushes
    2,782 visible faces
       17 non-visible faces
    5,906 nodes
    4,603 expensive split nodes
    1,303 mid-split nodes
    5,907 leaves
    2,839 SOLID leafs
    3,068 EMPTY leafs
    5,907 leafs total
    24 max tree height
    16 avg tree height
    24,041 tree portals
    1,241 outside leaves
    0 detail filled leafs
      467 brushes
    1,568 visible faces
    1,231 non-visible faces
    2,052 nodes
      635 non-visible nodes
    2,052 expensive split nodes
    2,053 leaves
      957 SOLID leafs
    1,096 EMPTY leafs
    2,053 leafs total
    20 max tree height
    13 avg tree height
    9,726 tree portals
    462 outside leaves
    0 detail filled leafs
    1 areas
    1 area portals
    9,726 tree portals
    5,970 sides visible
    2,985 makefaces
      522 merged
      589 subdivided
    688 nodes pruned
      634 player-occupiable leaves
      634 clusters of leaves
    1,764 vis portals
      634 EMPTY leafs
      731 SOLID leafs
    1,365 leafs total
    20 max tree height
    13 avg tree height
    3,186 edges added by tjunctions
    3,049 faces optimized through MWT
    9,283 triangles computed from MWT
      894 faces created via optimization of MWT triangles
    8,589 edges
    3,946 faces
      467 total brushes
    2,805 total brush sides
      900 total leaf brushes
      567 optimized brush side texinfos
Writing test_generic_final.bsp as Quake II BSP IBSP:38
Wrote test_generic_final.bsp

count   lump name    byte size 
     10 models              480
    828 planes            16560
   4378 vertexes          52536
   1442 nodes             40376
    810 texinfos          61560
   4024 faces             80480
   1453 leafs             40684
   4620 leaffaces          9240
    935 leafbrushes        1870
   8746 edges             34984
  17490 surfedges         69960
    484 brushes            5808
   2931 brushsides        11724
      2 areas                16
      1 areaportals           8
        lightdata             0
        visdata               0
        entdata            1997

0.143s seconds elapsed


