---- qbsp / ericw-tools 2.0.0-alpha8 ----

--- Options Summary ---
    "q2bsp" was set to "1" (from command line)
    "chop" was set to "1" (from game target)
    "maxedges" was set to "0" (from game target)

Input file: /home/null/_01_projects/FPS Template/sui-template/maps/test_generic_final-compile.map
Output file: /home/null/_01_projects/FPS Template/sui-template/maps/test_generic_final.bsp

using gamedir: '/home/null/_01_projects/FPS Template/sui-template'
WARNING: failed to find basedir '/home/null/_01_projects/FPS Template/baseq2'
LoadPCXPalette: Failed to load 'pics/colormap.pcx'.
INFO: using built-in palette.
WARNING: Couldn't locate texture for skip
     29 entities
     14 unique textures
    828 texinfos
    860 unique planes

INFO: world extents calculated to 4184 units
      386 brushes
        2 utility brushes removed
       10 brushes offset by origins
    2,321 sides
       22 side bevels

Processing map...
    372 SOLID brushes
    372 brushes total
    2,229 visible sides
INFO: calculating BSP for 372 brushes with 2229 sides
chopped 372 brushes into 372
    23 brushes created from the chompening
      372 brushes
    2,206 visible faces
       23 non-visible faces
    5,075 nodes
    3,813 expensive split nodes
    1,262 mid-split nodes
    5,076 leaves
    2,478 SOLID leafs
    2,598 EMPTY leafs
    5,076 leafs total
    23 max tree height
    16 avg tree height
    20,531 tree portals
    1,143 outside leaves
    0 detail filled leafs
      372 brushes
    1,089 visible faces
    1,140 non-visible faces
    1,628 nodes
      659 non-visible nodes
    1,628 expensive split nodes
    1,629 leaves
      773 SOLID leafs
      856 EMPTY leafs
    1,629 leafs total
    19 max tree height
    12 avg tree height
    7,726 tree portals
    415 outside leaves
    0 detail filled leafs
    1 areas
    1 area portals
    7,726 tree portals
    4,398 sides visible
    2,199 makefaces
      510 merged
      539 subdivided
    713 nodes pruned
      441 player-occupiable leaves
      441 clusters of leaves
    1,199 vis portals
    441 EMPTY leafs
    475 SOLID leafs
    916 leafs total
    19 max tree height
    12 avg tree height
    2,036 edges added by tjunctions
    2,225 faces optimized through MWT
    6,485 triangles computed from MWT
      542 faces created via optimization of MWT triangles
    6,014 edges
    2,770 faces
      372 total brushes
    2,235 total brush sides
      703 total leaf brushes
      472 optimized brush side texinfos
Writing test_generic_final.bsp as Quake II BSP IBSP:38
Wrote test_generic_final.bsp

count   lump name    byte size 
      7 models              336
    715 planes            14300
   3251 vertexes          39012
    975 nodes             27300
    515 texinfos          39140
   2836 faces             56720
    983 leafs             27524
   3348 leaffaces          6696
    735 leafbrushes        1470
   6147 edges             24588
  12292 surfedges         49168
    386 brushes            4632
   2343 brushsides         9372
      2 areas                16
      1 areaportals           8
        lightdata             0
        visdata               0
        entdata            1723

0.135s seconds elapsed


