---- qbsp / ericw-tools 2.0.0-alpha8 ----

--- Options Summary ---
    "q2bsp" was set to "1" (from command line)
    "chop" was set to "1" (from game target)
    "maxedges" was set to "0" (from game target)

Input file: /home/null/_01_projects/FPS Template/sui-template/maps/test_generic_final-compile.map
Output file: /home/null/_01_projects/FPS Template/sui-template/maps/test_generic_final.bsp

using gamedir: '/home/null/_01_projects/FPS Template/sui-template'
WARNING: failed to find basedir '/home/null/_01_projects/FPS Template/baseq2'
LoadPCXPalette: Failed to load 'pics/colormap.pcx'.
INFO: using built-in palette.
WARNING: Couldn't locate texture for skip
       58 entities
       14 unique textures
    1,782 texinfos
    1,236 unique planes

INFO: world extents calculated to 4184 units
      679 brushes
        3 utility brushes removed
       11 brushes offset by origins
    4,055 sides
      382 side bevels

Processing map...
    141 SOLID | DETAIL brushes
    521 SOLID brushes
    662 brushes total
    3,945 visible sides
INFO: calculating BSP for 662 brushes with 3945 sides
chopped 662 brushes into 662
    25 brushes created from the chompening
      662 brushes
    3,924 visible faces
       25 non-visible faces
    7,200 nodes
    5,595 expensive split nodes
    1,605 mid-split nodes
    7,201 leaves
      161 SOLID | DETAIL leafs
    3,198 SOLID leafs
    3,842 EMPTY leafs
    7,201 leafs total
    29 max tree height
    16 avg tree height
    2 tiny portals
    29,780 tree portals
    1,375 outside leaves
    8 detail filled leafs
      662 brushes
    2,386 visible faces
    1,563 non-visible faces
    2,669 nodes
      687 non-visible nodes
    2,669 expensive split nodes
    2,670 leaves
      141 SOLID | DETAIL leafs
    1,048 SOLID leafs
    1,481 EMPTY leafs
    2,670 leafs total
    26 max tree height
    14 avg tree height
    1 tiny portals
    12,981 tree portals
    465 outside leaves
    6 detail filled leafs
    1 areas
    1 area portals
    1 tiny portals
    12,981 tree portals
    8,878 sides visible
    4,439 makefaces
      851 merged
      579 subdivided
    741 nodes pruned
    1,010 player-occupiable leaves
      793 clusters of leaves
    2,369 vis portals
      102 SOLID | DETAIL leafs
    1,010 EMPTY leafs
      817 SOLID leafs
    1,929 leafs total
    24 max tree height
    14 avg tree height
     4,177 edges added by tjunctions
     4,056 faces optimized through MWT
    12,305 triangles computed from MWT
     1,171 faces created via optimization of MWT triangles
    11,546 edges
     5,338 faces
      662 total brushes
    4,311 total brush sides
    1,132 total leaf brushes
      756 optimized brush side texinfos
Writing test_generic_final.bsp as Quake II BSP IBSP:38
Wrote test_generic_final.bsp

count   lump name    byte size 
     10 models              480
   1206 planes            24120
   5742 vertexes          68904
   2006 nodes             56168
   1330 texinfos         101080
   5422 faces            108440
   2017 leafs             56476
   6521 leaffaces         13042
   1167 leafbrushes        2334
  11715 edges             46860
  23428 surfedges         93712
    679 brushes            8148
   4437 brushsides        17748
      2 areas                16
      1 areaportals           8
        lightdata             0
        visdata               0
        entdata            2317

0.228s seconds elapsed


